Version 4
SHEET 1 4540 1000
WIRE 2928 -1248 2896 -1248
WIRE 3136 -1248 3008 -1248
WIRE 3472 -1168 3376 -1168
WIRE 2896 -1152 2896 -1248
WIRE 2896 -1152 2832 -1152
WIRE 2976 -1152 2896 -1152
WIRE 3136 -1152 3136 -1248
WIRE 3312 -1152 3136 -1152
WIRE 3136 -1136 3136 -1152
WIRE 3424 -1136 3376 -1136
WIRE 2496 -1104 2384 -1104
WIRE 2672 -1104 2576 -1104
WIRE 2768 -1104 2672 -1104
WIRE 3056 -1104 3040 -1104
WIRE 3424 -1104 3424 -1136
WIRE 3056 -1072 3056 -1104
WIRE 2384 -1040 2384 -1104
WIRE 2672 -1040 2672 -1104
WIRE 2832 -1024 2832 -1056
WIRE 3136 -1024 3136 -1072
WIRE 3136 -1024 2832 -1024
WIRE 3472 -1024 3472 -1168
WIRE 3472 -1024 3136 -1024
WIRE 2832 -992 2832 -1024
WIRE 2384 -912 2384 -960
WIRE 2672 -912 2672 -960
WIRE 2976 -736 2976 -1056
WIRE 2976 -736 2496 -736
WIRE 2496 -688 2496 -736
WIRE 2496 -528 2496 -608
WIRE 2496 -528 2288 -528
WIRE 1920 -448 1872 -448
WIRE 2816 -448 2000 -448
WIRE 3168 -416 3136 -416
WIRE 3280 -416 3248 -416
WIRE 2816 -368 2816 -448
WIRE 2816 -368 2704 -368
WIRE 3280 -368 3280 -416
WIRE 3360 -368 3280 -368
WIRE 2288 -352 2288 -528
WIRE 2112 -304 2048 -304
WIRE 2704 -288 2704 -368
WIRE 2720 -288 2704 -288
WIRE 3040 -288 2976 -288
WIRE 3136 -288 3136 -416
WIRE 3136 -288 3120 -288
WIRE 3168 -288 3136 -288
WIRE 2816 -272 2816 -368
WIRE 2816 -272 2784 -272
WIRE 3280 -272 3280 -368
WIRE 3280 -272 3232 -272
WIRE 3344 -272 3280 -272
WIRE 3424 -272 3408 -272
WIRE 3680 -272 3424 -272
WIRE 2720 -256 2640 -256
WIRE 3168 -256 3120 -256
WIRE 3424 -256 3424 -272
WIRE 1776 -240 1648 -240
WIRE 1936 -240 1856 -240
WIRE 2048 -240 2048 -304
WIRE 2048 -240 1936 -240
WIRE 2816 -224 2816 -272
WIRE 3024 -224 2816 -224
WIRE 3120 -224 3120 -256
WIRE 3120 -224 3024 -224
WIRE 1872 -208 1872 -448
WIRE 1984 -208 1872 -208
WIRE 1872 -176 1872 -208
WIRE 1936 -176 1936 -240
WIRE 1984 -176 1984 -208
WIRE 2112 -176 1984 -176
WIRE 1648 -160 1648 -240
WIRE 3424 -160 3424 -176
WIRE 2352 -96 2352 -128
WIRE 2640 -96 2640 -256
WIRE 2640 -96 2352 -96
WIRE 1872 -64 1872 -96
WIRE 1936 -64 1936 -96
WIRE 2640 -48 2640 -96
WIRE 288 16 288 -32
WIRE 736 16 736 -32
WIRE 1152 16 1152 -32
WIRE 1552 16 1552 -32
WIRE 1632 240 1632 224
WIRE 1792 240 1792 224
FLAG 1872 -64 0
FLAG 1936 -64 0
FLAG 1632 240 0
FLAG 1792 240 0
FLAG 1632 144 Vp12
FLAG 1792 144 Vm12
FLAG 2192 -352 Vp12
FLAG 2752 -304 Vp12
FLAG 2192 -128 Vm12
FLAG 2752 -240 Vm12
FLAG 1552 16 0
FLAG 2672 -912 0
FLAG 2832 -912 Vm12
FLAG 3056 -1072 0
FLAG 3424 -1104 0
FLAG 2384 -912 0
FLAG 2384 -1104 CV
FLAG 3344 -1120 Vm12
FLAG 3344 -1184 Vp12
FLAG 1648 -160 INPUT
FLAG 2640 16 0
FLAG 3024 -224 OUT1
FLAG 3200 -304 Vp12
FLAG 3200 -240 Vm12
FLAG 2976 -288 INPUT
FLAG 3680 -272 OUTAP1A
FLAG 1152 16 0
FLAG 736 16 0
FLAG 288 -112 INPUT
FLAG 3424 -160 0
FLAG 288 16 0
FLAG 3360 -368 OUTAP1
SYMBOL res 1872 -256 R90
WINDOW 0 0 56 VBottom 2
WINDOW 3 32 56 VTop 2
SYMATTR InstName R1
SYMATTR Value 10k
SYMBOL res 1888 -80 R180
WINDOW 0 36 76 Left 2
WINDOW 3 36 40 Left 2
SYMATTR InstName R2
SYMATTR Value 220
SYMBOL res 1952 -80 R180
WINDOW 0 36 76 Left 2
WINDOW 3 36 40 Left 2
SYMATTR InstName R3
SYMATTR Value 220
SYMBOL res 1904 -432 R270
WINDOW 0 32 56 VTop 2
WINDOW 3 0 56 VBottom 2
SYMATTR InstName R4
SYMATTR Value 10k
SYMBOL TL074 2752 -336 R0
WINDOW 0 -46 13 Left 2
SYMATTR InstName U2
SYMBOL cap 2624 -48 R0
SYMATTR InstName C1
SYMATTR Value 1µ
SYMBOL voltage 1632 128 R0
SYMATTR InstName V1
SYMATTR Value 12
SYMBOL voltage 1792 128 R0
WINDOW 123 0 0 Left 2
WINDOW 39 0 0 Left 2
SYMATTR InstName V2
SYMATTR Value -12
SYMBOL voltage 1552 -128 R0
WINDOW 123 24 124 Left 2
WINDOW 39 0 0 Left 2
WINDOW 3 24 152 Left 2
SYMATTR Value2 AC 1 0
SYMATTR Value PULSE(-3 3 0 0.001 0.001 .5 1)
SYMATTR InstName V3
SYMBOL res 2480 -704 R0
SYMATTR InstName R10
SYMATTR Value 10k
SYMBOL pnp 3040 -1056 R180
SYMATTR InstName Q1
SYMBOL pnp 2768 -1056 M180
SYMATTR InstName Q2
SYMBOL res 2816 -1008 R0
SYMATTR InstName R12
SYMATTR Value 470k
SYMBOL res 2656 -1056 R0
SYMATTR InstName R13
SYMATTR Value 1.8k
SYMBOL res 2592 -1120 R90
WINDOW 0 0 56 VBottom 2
WINDOW 3 32 56 VTop 2
SYMATTR InstName R14
SYMATTR Value 100k
SYMBOL res 3024 -1264 R90
WINDOW 0 0 56 VBottom 2
WINDOW 3 32 56 VTop 2
SYMATTR InstName R15
SYMATTR Value 4.7k
SYMBOL cap 3120 -1136 R0
SYMATTR InstName C4
SYMATTR Value 4.7n
SYMBOL TL074 3344 -1216 M0
SYMATTR InstName U7
SYMBOL voltage 2384 -1056 R0
WINDOW 123 0 0 Left 0
WINDOW 39 0 0 Left 0
SYMATTR InstName V4
SYMATTR Value {cv}
SYMBOL lm13700 2192 -240 R0
SYMATTR InstName U5
SYMBOL TL074 3200 -336 R0
SYMATTR InstName U1
SYMBOL res 3136 -304 R90
WINDOW 0 0 56 VBottom 2
WINDOW 3 32 56 VTop 2
SYMATTR InstName R8
SYMATTR Value 10k
SYMBOL res 3264 -432 R90
WINDOW 0 0 56 VBottom 2
WINDOW 3 32 56 VTop 2
SYMATTR InstName R9
SYMATTR Value 10k
SYMBOL voltage 1152 -128 R0
WINDOW 123 24 124 Left 2
WINDOW 39 0 0 Left 2
WINDOW 3 24 152 Left 2
SYMATTR Value2 AC 1 0
SYMATTR Value PULSE(-3 3 0 .999 0.001 0 1)
SYMATTR InstName V5
SYMBOL voltage 736 -128 R0
WINDOW 123 24 124 Left 2
WINDOW 39 0 0 Left 2
WINDOW 3 24 152 Left 2
SYMATTR Value2 AC 1 0
SYMATTR Value PULSE(-3 3 0 .5 .5 0 1)
SYMATTR InstName V6
SYMBOL cap 3408 -288 R90
WINDOW 0 0 32 VBottom 2
WINDOW 3 32 32 VTop 2
SYMATTR InstName C2
SYMATTR Value 47µ
SYMBOL res 3408 -272 R0
SYMATTR InstName R5
SYMATTR Value 100k
SYMBOL voltage 288 -128 R0
WINDOW 123 24 124 Left 2
WINDOW 39 0 0 Left 2
WINDOW 3 24 152 Left 2
SYMATTR Value2 AC 1 0
SYMATTR Value PULSE(-3 3 0 0.001 0.001 .2 1)
SYMATTR InstName V7
TEXT 2136 184 Left 2 !.include potentiometer.sub
TEXT 1736 -872 Left 2 !;ac dec 10 .001 10000
TEXT 2272 -872 Left 2 !.step param cv -3 3 1
TEXT 1544 -336 Left 2 !.tran 0 5 2
