Version 4
SHEET 1 5496 1000
WIRE 2928 -1248 2896 -1248
WIRE 3136 -1248 3008 -1248
WIRE 3472 -1168 3376 -1168
WIRE 2896 -1152 2896 -1248
WIRE 2896 -1152 2832 -1152
WIRE 2976 -1152 2896 -1152
WIRE 3136 -1152 3136 -1248
WIRE 3312 -1152 3136 -1152
WIRE 3136 -1136 3136 -1152
WIRE 3424 -1136 3376 -1136
WIRE 2496 -1104 2384 -1104
WIRE 2672 -1104 2576 -1104
WIRE 2768 -1104 2672 -1104
WIRE 3056 -1104 3040 -1104
WIRE 3424 -1104 3424 -1136
WIRE 3056 -1072 3056 -1104
WIRE 2384 -1040 2384 -1104
WIRE 2672 -1040 2672 -1104
WIRE 2832 -1024 2832 -1056
WIRE 3136 -1024 3136 -1072
WIRE 3136 -1024 2832 -1024
WIRE 3472 -1024 3472 -1168
WIRE 3472 -1024 3136 -1024
WIRE 2832 -992 2832 -1024
WIRE 2384 -912 2384 -960
WIRE 2672 -912 2672 -960
WIRE 2976 -736 2976 -1056
WIRE 2976 -736 2496 -736
WIRE 3264 -736 2976 -736
WIRE 2496 -688 2496 -736
WIRE 3264 -672 3264 -736
WIRE 2496 -528 2496 -608
WIRE 2496 -528 2288 -528
WIRE 3264 -512 3264 -592
WIRE 3552 -512 3264 -512
WIRE 1920 -448 1872 -448
WIRE 2816 -448 2000 -448
WIRE 4048 -448 3024 -448
WIRE 4176 -448 4128 -448
WIRE 2816 -368 2816 -448
WIRE 2816 -368 2704 -368
WIRE 2288 -352 2288 -528
WIRE 3552 -352 3552 -512
WIRE 4176 -352 4176 -448
WIRE 4176 -352 4064 -352
WIRE 2112 -304 1936 -304
WIRE 3376 -304 3088 -304
WIRE 2704 -288 2704 -368
WIRE 2720 -288 2704 -288
WIRE 2816 -272 2816 -368
WIRE 2816 -272 2784 -272
WIRE 2720 -256 2640 -256
WIRE 4064 -256 4064 -352
WIRE 4080 -256 4064 -256
WIRE 4176 -240 4176 -352
WIRE 4176 -240 4144 -240
WIRE 2816 -224 2816 -272
WIRE 2928 -224 2816 -224
WIRE 3024 -224 3024 -448
WIRE 3024 -224 3008 -224
WIRE 3216 -224 3024 -224
WIRE 4080 -224 4000 -224
WIRE 1744 -208 1648 -208
WIRE 1776 -208 1744 -208
WIRE 1872 -208 1872 -448
WIRE 1872 -208 1856 -208
WIRE 1984 -208 1872 -208
WIRE 3024 -192 3024 -224
WIRE 3088 -192 3088 -304
WIRE 1872 -176 1872 -208
WIRE 1936 -176 1936 -304
WIRE 1984 -176 1984 -208
WIRE 2112 -176 1984 -176
WIRE 3216 -176 3216 -224
WIRE 3376 -176 3216 -176
WIRE 1648 -160 1648 -208
WIRE 2352 -96 2352 -128
WIRE 2640 -96 2640 -256
WIRE 2640 -96 2352 -96
WIRE 3616 -96 3616 -128
WIRE 4000 -96 4000 -224
WIRE 4000 -96 3616 -96
WIRE 3024 -80 3024 -112
WIRE 3088 -80 3088 -112
WIRE 1872 -64 1872 -96
WIRE 1936 -64 1936 -96
WIRE 2640 -48 2640 -96
WIRE 4000 -48 4000 -96
WIRE 624 16 624 -32
WIRE 1056 16 1056 -32
WIRE 1552 16 1552 -32
WIRE 2640 32 2640 16
WIRE 4000 48 4000 16
WIRE 1744 144 1744 -208
WIRE 4160 144 1744 144
WIRE 4336 144 4160 144
WIRE 4448 144 4416 144
WIRE 4480 144 4448 144
WIRE 4576 144 4560 144
WIRE 4448 224 4448 144
WIRE 4448 224 4416 224
WIRE 4448 272 4448 224
WIRE 4496 272 4448 272
WIRE 4576 288 4576 144
WIRE 4576 288 4560 288
WIRE 4624 288 4576 288
WIRE 4736 288 4704 288
WIRE 4768 288 4736 288
WIRE 4864 288 4848 288
WIRE 5056 288 4864 288
WIRE 4496 304 4464 304
WIRE 4448 320 4448 272
WIRE 4448 320 4416 320
WIRE 5056 320 5056 288
WIRE 4464 336 4464 304
WIRE 864 400 864 352
WIRE 4736 416 4736 288
WIRE 4784 416 4736 416
WIRE 5056 416 5056 400
WIRE 4864 432 4864 288
WIRE 4864 432 4848 432
WIRE 4160 448 4160 144
WIRE 4336 448 4160 448
WIRE 4448 448 4416 448
WIRE 4480 448 4448 448
WIRE 4576 448 4560 448
WIRE 4784 448 4752 448
WIRE 1616 464 1616 448
WIRE 1776 464 1776 448
WIRE 4752 480 4752 448
WIRE 4448 528 4448 448
WIRE 4448 528 4416 528
WIRE 4448 576 4448 528
WIRE 4496 576 4448 576
WIRE 4576 592 4576 448
WIRE 4576 592 4560 592
WIRE 4768 592 4576 592
WIRE 4496 608 4464 608
WIRE 4768 624 4768 592
WIRE 4464 640 4464 608
WIRE 4768 720 4768 704
FLAG 1872 -64 0
FLAG 1936 -64 0
FLAG 3024 -80 0
FLAG 3088 -80 0
FLAG 1616 464 0
FLAG 1776 464 0
FLAG 1616 368 Vp12
FLAG 1776 368 Vm12
FLAG 2192 -352 Vp12
FLAG 3456 -352 Vp12
FLAG 2752 -304 Vp12
FLAG 4112 -272 Vp12
FLAG 2192 -128 Vm12
FLAG 3456 -128 Vm12
FLAG 2752 -240 Vm12
FLAG 4112 -208 Vm12
FLAG 1552 16 0
FLAG 1552 -112 INPUT_SQUARE
FLAG 2672 -912 0
FLAG 2832 -912 Vm12
FLAG 3056 -1072 0
FLAG 3424 -1104 0
FLAG 2384 -912 0
FLAG 2384 -1104 CV
FLAG 3344 -1120 Vm12
FLAG 3344 -1184 Vp12
FLAG 1648 -160 INPUT_PULSE
FLAG 4000 48 0
FLAG 2640 32 0
FLAG 2816 -448 STAGE1
FLAG 5056 416 0
FLAG 4176 -448 STAGE2
FLAG 4528 256 Vp12
FLAG 4528 320 Vm12
FLAG 5056 288 OUTPUT_2pole
FLAG 4464 336 0
FLAG 4336 224 STAGE1
FLAG 4336 320 STAGE2
FLAG 1056 16 0
FLAG 1056 -112 INPUT_RAMP
FLAG 624 16 0
FLAG 624 -112 INPUT_TRI
FLAG 4768 720 0
FLAG 4528 560 Vp12
FLAG 4528 624 Vm12
FLAG 4768 592 OUTPUT_1POLE
FLAG 4464 640 0
FLAG 4336 528 STAGE1
FLAG 864 400 0
FLAG 864 272 INPUT_PULSE
FLAG 4816 400 Vp12
FLAG 4816 464 Vm12
FLAG 4752 480 0
SYMBOL res 1872 -224 R90
WINDOW 0 0 56 VBottom 2
WINDOW 3 32 56 VTop 2
SYMATTR InstName R1
SYMATTR Value 10k
SYMBOL res 1888 -80 R180
WINDOW 0 36 76 Left 2
WINDOW 3 36 40 Left 2
SYMATTR InstName R2
SYMATTR Value 220
SYMBOL res 1952 -80 R180
WINDOW 0 36 76 Left 2
WINDOW 3 36 40 Left 2
SYMATTR InstName R3
SYMATTR Value 220
SYMBOL res 1904 -432 R270
WINDOW 0 32 56 VTop 2
WINDOW 3 0 56 VBottom 2
SYMATTR InstName R4
SYMATTR Value 10k
SYMBOL TL074 2752 -336 R0
WINDOW 0 -46 13 Left 2
SYMATTR InstName U2
SYMBOL res 3024 -240 R90
WINDOW 0 0 56 VBottom 2
WINDOW 3 32 56 VTop 2
SYMATTR InstName R5
SYMATTR Value 10k
SYMBOL res 3040 -96 R180
WINDOW 0 36 76 Left 2
WINDOW 3 36 40 Left 2
SYMATTR InstName R6
SYMATTR Value 220
SYMBOL res 3104 -96 R180
WINDOW 0 36 76 Left 2
WINDOW 3 36 40 Left 2
SYMATTR InstName R7
SYMATTR Value 220
SYMBOL TL074 4112 -304 R0
WINDOW 3 20 124 Left 2
SYMATTR InstName U4
SYMBOL cap 2624 -48 R0
SYMATTR InstName C1
SYMATTR Value 100n
SYMBOL cap 3984 -48 R0
SYMATTR InstName C2
SYMATTR Value 100n
SYMBOL voltage 1616 352 R0
SYMATTR InstName V1
SYMATTR Value 12
SYMBOL voltage 1776 352 R0
WINDOW 123 0 0 Left 2
WINDOW 39 0 0 Left 2
SYMATTR InstName V2
SYMATTR Value -12
SYMBOL voltage 1552 -128 R0
WINDOW 123 24 124 Left 2
WINDOW 39 0 0 Left 2
WINDOW 3 24 152 Left 2
SYMATTR Value2 AC 1 0
SYMATTR Value PULSE(-3 3 0 .001u .001u 10m 20m)
SYMATTR InstName V3
SYMBOL res 2480 -704 R0
SYMATTR InstName R10
SYMATTR Value 10k
SYMBOL res 3248 -688 R0
SYMATTR InstName R11
SYMATTR Value 10k
SYMBOL pnp 3040 -1056 R180
SYMATTR InstName Q1
SYMBOL pnp 2768 -1056 M180
SYMATTR InstName Q2
SYMBOL res 2816 -1008 R0
SYMATTR InstName R12
SYMATTR Value 470k
SYMBOL res 2656 -1056 R0
SYMATTR InstName R13
SYMATTR Value 1.8k
SYMBOL res 2592 -1120 R90
WINDOW 0 0 56 VBottom 2
WINDOW 3 32 56 VTop 2
SYMATTR InstName R14
SYMATTR Value 100k
SYMBOL res 3024 -1264 R90
WINDOW 0 0 56 VBottom 2
WINDOW 3 32 56 VTop 2
SYMATTR InstName R15
SYMATTR Value 4.7k
SYMBOL cap 3120 -1136 R0
SYMATTR InstName C4
SYMATTR Value 4.7n
SYMBOL TL074 3344 -1216 M0
SYMATTR InstName U7
SYMBOL voltage 2384 -1056 R0
WINDOW 123 0 0 Left 0
WINDOW 39 0 0 Left 0
SYMATTR InstName V4
SYMATTR Value {cv}
SYMBOL res 4032 -432 R270
WINDOW 0 32 56 VTop 2
WINDOW 3 0 56 VBottom 2
SYMATTR InstName R16
SYMATTR Value 10k
SYMBOL lm13700 2192 -240 R0
SYMATTR InstName U5
SYMBOL lm13700 3456 -240 R0
SYMATTR InstName U8
SYMBOL res 5040 304 R0
SYMATTR InstName R8
SYMATTR Value 100k
SYMBOL TL074 4528 224 R0
WINDOW 3 20 124 Left 2
SYMATTR InstName U1
SYMBOL res 4432 128 R90
WINDOW 0 0 56 VBottom 2
WINDOW 3 32 56 VTop 2
SYMATTR InstName R9
SYMATTR Value 30k
SYMBOL res 4432 208 R90
WINDOW 0 0 56 VBottom 2
WINDOW 3 32 56 VTop 2
SYMATTR InstName R19
SYMATTR Value 7.5k
SYMBOL res 4432 304 R90
WINDOW 0 0 56 VBottom 2
WINDOW 3 32 56 VTop 2
SYMATTR InstName R18
SYMATTR Value 7.5k
SYMBOL res 4576 128 R90
WINDOW 0 0 56 VBottom 2
WINDOW 3 32 56 VTop 2
SYMATTR InstName R17
SYMATTR Value 30k
SYMBOL voltage 1056 -128 R0
WINDOW 123 24 124 Left 2
WINDOW 39 0 0 Left 2
WINDOW 3 24 152 Left 2
SYMATTR Value2 AC 1 0
SYMATTR Value PULSE(-3 3 0 20m .001u 0 20m)
SYMATTR InstName V5
SYMBOL voltage 624 -128 R0
WINDOW 123 24 124 Left 2
WINDOW 39 0 0 Left 2
WINDOW 3 24 152 Left 2
SYMATTR Value2 AC 1 0
SYMATTR Value PULSE(-3 3 0 10m 10m 0 20m)
SYMATTR InstName V6
SYMBOL res 4752 608 R0
SYMATTR InstName R20
SYMATTR Value 100k
SYMBOL TL074 4528 528 R0
WINDOW 3 20 124 Left 2
SYMATTR InstName U3
SYMBOL res 4432 432 R90
WINDOW 0 0 56 VBottom 2
WINDOW 3 32 56 VTop 2
SYMATTR InstName R21
SYMATTR Value 30k
SYMBOL res 4432 512 R90
WINDOW 0 0 56 VBottom 2
WINDOW 3 32 56 VTop 2
SYMATTR InstName R22
SYMATTR Value 15k
SYMBOL res 4576 432 R90
WINDOW 0 0 56 VBottom 2
WINDOW 3 32 56 VTop 2
SYMATTR InstName R24
SYMATTR Value 30k
SYMBOL voltage 864 256 R0
WINDOW 123 24 124 Left 2
WINDOW 39 0 0 Left 2
WINDOW 3 24 152 Left 2
SYMATTR Value2 AC 1 0
SYMATTR Value PULSE(-3 3 0 .001u .001u 5m 20m)
SYMATTR InstName V7
SYMBOL TL074 4816 368 R0
WINDOW 3 20 124 Left 2
SYMATTR InstName U6
SYMBOL res 4720 272 R90
WINDOW 0 0 56 VBottom 2
WINDOW 3 32 56 VTop 2
SYMATTR InstName R23
SYMATTR Value 10k
SYMBOL res 4864 272 R90
WINDOW 0 0 56 VBottom 2
WINDOW 3 32 56 VTop 2
SYMATTR InstName R27
SYMATTR Value 10k
TEXT 2120 408 Left 2 !.include potentiometer.sub
TEXT 3504 -648 Left 2 !.ac oct 30 .01 1000
TEXT 1376 -24 Left 2 !;tran 0 100m 60m
TEXT 1984 -928 Left 2 !;.step param cv 0 5 1
TEXT 2000 -984 Left 2 !.param cv=0
